71

C         -0.678709    -6.081240     0.403787
C         -1.421462    -4.864372     0.280755
C         -0.705989    -3.625468     0.187035
C         -1.418224    -2.400918     0.070662
C         -0.713694    -1.160119     0.004538
C         -1.443203     0.064556    -0.079728
C         -0.713622     1.312240    -0.168268
B         -1.564081     4.379087     0.394410
C         -0.706209     4.841634     1.540747
C         -2.810272    -4.856701     0.234758
C         -3.537762    -3.666846     0.084413
C         -2.836092    -2.422308     0.007906
C         -3.557280    -1.211314    -0.154781
C         -2.863847     0.030372    -0.204980
C         -3.638076     1.229262    -0.390203
C         -3.023606     2.467570    -0.420258
C         -3.750368     3.704961    -0.475014
C         -2.940500     4.784870    -0.148872
C         -4.953639    -3.664225    -0.008221
C         -5.647373    -2.496568    -0.185103
C         -4.982627    -1.247404    -0.268021
C         -5.706376    -0.048552    -0.458314
C         -5.071899     1.177027    -0.520346
C         -5.780697     2.415924    -0.709952
C         -5.164130     3.635155    -0.701494
C          4.954526    -3.663148    -0.008861
C          5.647984    -2.495324    -0.185730
C          4.982965    -1.246286    -0.268396
C          5.706430    -0.047255    -0.458617
C          5.071679     1.178208    -0.520341
C          5.780152     2.417305    -0.709800
C          5.163311     3.636409    -0.700933
C          2.811442    -4.856097     0.234355
C          3.538659    -3.666079     0.083981
C          2.836711    -2.421684     0.007667
C          3.557622    -1.210516    -0.154952
C          2.863918     0.031024    -0.204872
C          3.637874     1.230109    -0.389957
C          3.023144     2.468293    -0.419616
C          3.749594     3.705854    -0.474127
C          2.939512     4.785503    -0.147529
C          0.680165    -6.081094     0.403681
C          1.422639    -4.864066     0.280550
C          0.706886    -3.625315     0.186949
C          1.418844    -2.400607     0.070552
C          0.714034    -1.159958     0.004534
C          1.443270     0.064887    -0.079542
C          0.713405     1.312423    -0.167982
B          1.546892     2.586033    -0.201176
B          1.563321     4.379355     0.395810
C          0.704442     4.841542     1.541524
H         -1.233321    -7.015484     0.486950
H         -1.198742     4.953903     2.516571
H         -3.351015    -5.801944     0.299711
H         -3.319785     5.808029    -0.159036
H         -5.480253    -4.616044     0.052899
H         -6.734079    -2.509991    -0.266266
H         -6.792438    -0.104104    -0.552362
H         -6.861659     2.356886    -0.843199
H         -5.748001     4.547835    -0.815357
H          5.481352    -4.614860     0.052087
H          6.734681    -2.508509    -0.267060
H          6.792491    -0.102558    -0.552828
H          6.861106     2.358557    -0.843249
H          5.746978     4.549235    -0.814685
H          3.352394    -5.801228     0.299183
H          3.318594     5.808737    -0.157501
H          1.234990    -7.015220     0.486753
H          1.195901     4.953637     2.517902
B         -1.547316     2.585692    -0.202082
Fe        -0.000561     3.076628     0.829353
