45

Fe         0.00000        0.00000       -0.00003
N          1.32970        1.27957       -0.00007
N          1.32923       -1.27956       -0.00004
N         -1.32970       -1.27957        0.00003
N         -1.32923        1.27956        0.00003
C         -1.18431        2.64008       -0.00002
C         -1.18596       -2.63916        0.00001
N         -0.00024       -3.27604        0.00000
C          1.18431       -2.64008       -0.00001
C         -2.58833       -0.70523        0.00004
H          2.26588        4.50689        0.00007
H         -2.26524        4.50755       -0.00007
C          5.00534        0.68876        0.00004
C          2.39265        3.43004        0.00004
C          3.63760        2.85722        0.00005
C          3.78301        1.43182        0.00002
C          2.58833        0.70523       -0.00005
N          0.00024        3.27604       -0.00001
C          1.18596        2.63916       -0.00001
C         -2.39190        3.43065       -0.00003
C         -2.58806        0.70556        0.00003
C          5.00499       -0.68966        0.00002
C          2.58806       -0.70556       -0.00004
C          3.78241       -1.43222       -0.00002
C          3.63654       -2.85794        0.00000
C          2.39190       -3.43065        0.00000
C         -2.39265       -3.43004        0.00001
H          2.26524       -4.50755        0.00002
H         -2.26587       -4.50689        0.00000
H         -4.52461        3.48528       -0.00003
C         -3.63654        2.85794       -0.00002
C         -3.78241        1.43222        0.00002
C         -5.00499        0.68966        0.00001
H         -5.94739        1.23116        0.00001
C         -5.00534       -0.68876        0.00002
C         -3.78301       -1.43182        0.00002
C         -3.63760       -2.85722        0.00001
H         -4.52565       -3.48458       -0.00001
H         -5.94796       -1.22985        0.00000
H          5.94796        1.22985        0.00009
H          4.52565        3.48458        0.00010
H          5.94739       -1.23115        0.00003
H          4.52462       -3.48528        0.00001
N          0.00000        0.00000        2.00000
N          0.00000        0.00000        3.00000
